current directory: /home/wojciech/development/module 2/rails/rails-dynamic-request-readme-london-web-010620/bundle/ruby/2.6.0/gems/websocket-driver-0.6.5/ext/websocket-driver
/usr/share/rvm/rubies/ruby-2.6.1/bin/ruby -I /usr/share/rvm/rubies/ruby-2.6.1/lib/ruby/site_ruby/2.6.0 -r ./siteconf20200131-7995-v5jqsf.rb extconf.rb
creating Makefile

current directory: /home/wojciech/development/module 2/rails/rails-dynamic-request-readme-london-web-010620/bundle/ruby/2.6.0/gems/websocket-driver-0.6.5/ext/websocket-driver
make "DESTDIR=" clean

current directory: /home/wojciech/development/module 2/rails/rails-dynamic-request-readme-london-web-010620/bundle/ruby/2.6.0/gems/websocket-driver-0.6.5/ext/websocket-driver
make "DESTDIR="
compiling websocket_mask.c
linking shared-object websocket_mask.so

current directory: /home/wojciech/development/module 2/rails/rails-dynamic-request-readme-london-web-010620/bundle/ruby/2.6.0/gems/websocket-driver-0.6.5/ext/websocket-driver
make "DESTDIR=" install
/usr/bin/install -m 0755 websocket_mask.so ./.gem.20200131-7995-apj9nv
